/* WARNING: DO NOT EDIT this file! Any user changes made in files
        in RUNDIR will be overriden. This file is automatically generated.
        MOM6 parameter changes may ve made via SourceMods or user_nl_mom
        within CASEROOT.*/
#override MAXTRUNC = 2000
#override GUST_CONST = 0.00004
!!! CEMP_NL = 2.0 !(UNCHANGED)
MLE_USE_PBL_MLD = True
#override OPACITY_SCHEME = "MANIZZA_05"
#override PEN_SW_NBANDS = 3

KPP%
KPP_CVt2 = 1.0
%KPP

