/* WARNING: DO NOT EDIT this file! Any user changes made in files
        in RUNDIR will be overriden. This file is automatically generated.
        MOM6 parameter changes may ve made via SourceMods or user_nl_mom
        within CASEROOT.*/
#override INPUTDIR = "INPUT"
#override MAXTRUNC = 2000
REMAPPING_USE_OM4_SUBCELLS = False
#override WAVE_METHOD = EFACTOR
#override STOKES_DDT = False
#override STOKES_VF = False
#override STOKES_PGF = False
#override FPMIX = False

KPP%
KPP_CVt2 = 1.0
#override STOKES_MOST = False
USE_KPP_LT_K = True
USE_KPP_LT_VT2 = True
%KPP

