/* WARNING: DO NOT EDIT this file! Any user changes made in files
        in RUNDIR will be overriden. This file is automatically generated.
        MOM6 parameter changes may ve made via SourceMods or user_nl_mom
        within CASEROOT.*/
#override INPUTDIR = "INPUT"
#override MAXTRUNC = 2000
REMAPPING_USE_OM4_SUBCELLS = False
#override WAVE_METHOD = EFACTOR
#override STOKES_DDT = False
#override STOKES_VF = False
#override STOKES_PGF = False
#override FPMIX = False
#override ALE_COORDINATE_CONFIG = "HYBRID:hybrid_75layer_zstar2.50m-2025-02-14.nc,sigma2,dz"
#override MAX_LAYER_THICKNESS_CONFIG = "FILE:dz_max.nc,dz"
#override MAXIMUM_INT_DEPTH_CONFIG = "FILE:lev.nc,Z"

KPP%
KPP_CVt2 = 1.0
#override STOKES_MOST = False
USE_KPP_LT_K = True
USE_KPP_LT_VT2 = True
%KPP

