2025-01-15 14:58:30: xmlchange success <command> ./xmlchange NTASKS_OCN=896  </command>
 ---------------------------------------------------
2025-01-15 14:58:34: case.setup starting 
 ---------------------------------------------------
2025-01-15 14:58:36: case.setup success 
 ---------------------------------------------------
2025-01-15 14:58:36:   local git repository created
 ---------------------------------------------------
2025-01-15 14:58:54: case.build starting 
 ---------------------------------------------------
2025-01-15 15:00:01: xmlchange success <command> ./xmlchange CASE_GIT_REPOSITORY=git@github.com:NCAR/omwg_dev.git  </command>
 ---------------------------------------------------
2025-01-15 15:00:27: case.build starting 
 ---------------------------------------------------
2025-01-15 15:00:41: case.build starting 
 ---------------------------------------------------
2025-01-15 15:10:53: case.build error 
ERROR: BUILD FAIL: buildexe failed, cat /glade/derecho/scratch/gmarques/g.e30_a05cish.GJRAv4.TL319_t232_wgx3_hycom1_N75.2025.009/bld/cesm.bldlog.250115-150043
 ---------------------------------------------------
2025-01-15 15:15:16: build.clean starting 
 ---------------------------------------------------
2025-01-15 15:15:20: build.clean success 
 ---------------------------------------------------
