2025-01-24 15:31:17: case.setup starting 
 ---------------------------------------------------
2025-01-24 15:31:19: case.setup success 
 ---------------------------------------------------
2025-01-24 15:31:19:   local git repository created
 ---------------------------------------------------
2025-01-24 15:32:36: case.build starting 
 ---------------------------------------------------
2025-01-24 15:33:29: xmlchange success <command> ./xmlchange CASE_GIT_REPOSITORY=git@github.com:NCAR/omwg_dev.git  </command>
 ---------------------------------------------------
2025-01-24 15:33:47: case.build starting 
 ---------------------------------------------------
2025-01-24 15:34:19: case.build error 
ERROR: /glade/work/gmarques/cesm.sandboxes/cesm3_0_alpha05c_testing/libraries/FMS/buildlib FAILED, cat /glade/derecho/scratch/gmarques/g.e30_a05cish.GJRAv4.TL319_t232_wgx3_hycom1_N75.2025.020/bld/FMS.bldlog.250124-153349
 ---------------------------------------------------
2025-01-24 15:36:50: build.clean starting 
 ---------------------------------------------------
2025-01-24 15:36:54: build.clean success 
 ---------------------------------------------------
2025-01-24 15:36:59: case.build error 
[Errno 2] No such file or directory: '/glade/derecho/scratch/gmarques/g.e30_a05cish.GJRAv4.TL319_t232_wgx3_hycom1_N75.2025.020/bld/FMS.bldlog.250124-153236'
 ---------------------------------------------------
2025-01-24 15:37:09: case.build starting 
 ---------------------------------------------------
2025-01-24 15:47:18: case.build success 
 ---------------------------------------------------
2025-01-24 15:49:10: xmlchange success <command> ./xmlchange STOP_OPTION=nyears,RESUBMIT=3  </command>
 ---------------------------------------------------
2025-01-24 15:54:30: case.submit starting 7568836.desched1
 ---------------------------------------------------
2025-01-24 15:54:32: case.submit success 7568836.desched1
 ---------------------------------------------------
2025-01-24 15:55:08: case.run starting 7568835.desched1
 ---------------------------------------------------
