2025-01-24 15:31:17: case.setup starting 
 ---------------------------------------------------
2025-01-24 15:31:19: case.setup success 
 ---------------------------------------------------
2025-01-24 15:31:19:   local git repository created
 ---------------------------------------------------
2025-01-24 15:32:36: case.build starting 
 ---------------------------------------------------
2025-01-24 15:33:29: xmlchange success <command> ./xmlchange CASE_GIT_REPOSITORY=git@github.com:NCAR/omwg_dev.git  </command>
 ---------------------------------------------------
2025-01-24 15:33:47: case.build starting 
 ---------------------------------------------------
2025-01-24 15:34:19: case.build error 
ERROR: /glade/work/gmarques/cesm.sandboxes/cesm3_0_alpha05c_testing/libraries/FMS/buildlib FAILED, cat /glade/derecho/scratch/gmarques/g.e30_a05cish.GJRAv4.TL319_t232_wgx3_hycom1_N75.2025.020/bld/FMS.bldlog.250124-153349
 ---------------------------------------------------
2025-01-24 15:36:50: build.clean starting 
 ---------------------------------------------------
2025-01-24 15:36:54: build.clean success 
 ---------------------------------------------------
2025-01-24 15:36:59: case.build error 
[Errno 2] No such file or directory: '/glade/derecho/scratch/gmarques/g.e30_a05cish.GJRAv4.TL319_t232_wgx3_hycom1_N75.2025.020/bld/FMS.bldlog.250124-153236'
 ---------------------------------------------------
2025-01-24 15:37:09: case.build starting 
 ---------------------------------------------------
2025-01-24 15:47:18: case.build success 
 ---------------------------------------------------
2025-01-24 15:49:10: xmlchange success <command> ./xmlchange STOP_OPTION=nyears,RESUBMIT=3  </command>
 ---------------------------------------------------
2025-01-24 15:54:30: case.submit starting 7568836.desched1
 ---------------------------------------------------
2025-01-24 15:54:32: case.submit success 7568836.desched1
 ---------------------------------------------------
2025-01-24 15:55:08: case.run starting 7568835.desched1
 ---------------------------------------------------
2025-01-24 15:55:14: model execution starting 7568835.desched1
 ---------------------------------------------------
2025-01-25 00:54:42: model execution success 7568835.desched1
 ---------------------------------------------------
2025-01-25 00:54:44: case.run success 7568835.desched1
 ---------------------------------------------------
2025-01-25 00:54:46:   Timing files created for run 7568835.desched1.250124-155508
 ---------------------------------------------------
2025-01-25 00:55:12: st_archive starting 7568836.desched1
 ---------------------------------------------------
2025-01-25 00:55:42: st_archive success 7568836.desched1
 ---------------------------------------------------
2025-01-25 00:55:45: case.submit starting 7572159.desched1
 ---------------------------------------------------
2025-01-25 00:55:47: case.submit success 7572159.desched1
 ---------------------------------------------------
2025-01-25 01:01:48: case.run starting 7572158.desched1
 ---------------------------------------------------
2025-01-25 01:01:54: model execution starting 7572158.desched1
 ---------------------------------------------------
2025-01-25 09:58:37: model execution success 7572158.desched1
 ---------------------------------------------------
2025-01-25 09:58:38: case.run success 7572158.desched1
 ---------------------------------------------------
2025-01-25 09:58:39:   Timing files created for run 7572158.desched1.250125-010148
 ---------------------------------------------------
2025-01-25 09:59:59: st_archive starting 7572159.desched1
 ---------------------------------------------------
2025-01-25 10:00:27: st_archive success 7572159.desched1
 ---------------------------------------------------
2025-01-25 10:00:28: case.submit starting 7575771.desched1
 ---------------------------------------------------
2025-01-25 10:00:29: case.submit success 7575771.desched1
 ---------------------------------------------------
2025-01-25 10:00:42: case.run starting 7575770.desched1
 ---------------------------------------------------
2025-01-25 10:00:48: model execution starting 7575770.desched1
 ---------------------------------------------------
2025-01-25 18:57:14: model execution success 7575770.desched1
 ---------------------------------------------------
2025-01-25 18:57:15: case.run success 7575770.desched1
 ---------------------------------------------------
2025-01-25 18:57:16:   Timing files created for run 7575770.desched1.250125-100042
 ---------------------------------------------------
2025-01-25 18:57:41: st_archive starting 7575771.desched1
 ---------------------------------------------------
2025-01-25 18:58:06: st_archive success 7575771.desched1
 ---------------------------------------------------
2025-01-25 18:58:07: case.submit starting 7579312.desched1
 ---------------------------------------------------
2025-01-25 18:58:08: case.submit success 7579312.desched1
 ---------------------------------------------------
2025-01-25 18:58:20: case.run starting 7579311.desched1
 ---------------------------------------------------
2025-01-25 18:58:26: model execution starting 7579311.desched1
 ---------------------------------------------------
2025-01-26 03:54:10: model execution success 7579311.desched1
 ---------------------------------------------------
