2025-01-10 13:24:37: case.setup starting 
 ---------------------------------------------------
2025-01-10 13:24:39: case.setup success 
 ---------------------------------------------------
2025-01-10 13:24:39:   local git repository created
 ---------------------------------------------------
2025-01-10 13:32:06: xmlchange success <command> ./xmlchange NTASKS_OCN=896  </command>
 ---------------------------------------------------
2025-01-10 13:32:11: case.setup starting 
 ---------------------------------------------------
2025-01-10 13:32:13: case.setup success 
 ---------------------------------------------------
2025-01-10 13:32:36: case.build starting 
 ---------------------------------------------------
2025-01-10 13:42:05: case.build error 
ERROR: BUILD FAIL: mom.buildlib failed, cat /glade/derecho/scratch/gmarques/g.e30_a05cish.GJRAv4.TL319_t232_wgx3_hycom1_N75.2025.005/bld/ocn.bldlog.250110-133237
 ---------------------------------------------------
2025-01-10 13:44:21: case.build starting 
 ---------------------------------------------------
2025-01-10 13:46:42: case.build success 
 ---------------------------------------------------
