2025-02-03 13:50:19: case.setup starting 
 ---------------------------------------------------
2025-02-03 13:50:22: case.setup success 
 ---------------------------------------------------
2025-02-03 13:50:22:   local git repository created
 ---------------------------------------------------
2025-02-03 13:51:51: xmlchange success <command> ./xmlchange CASE_GIT_REPOSITORY=git@github.com:NCAR/omwg_dev.git  </command>
 ---------------------------------------------------
2025-02-03 14:08:04: case.build starting 
 ---------------------------------------------------
2025-02-03 14:18:12: case.build success 
 ---------------------------------------------------
2025-02-03 14:19:35: xmlchange success <command> ./xmlchange RESUBMIT=3  </command>
 ---------------------------------------------------
2025-02-03 14:20:57: case.submit starting 7649626.desched1
 ---------------------------------------------------
2025-02-03 14:20:58: case.submit success 7649626.desched1
 ---------------------------------------------------
2025-02-03 14:21:11: case.run starting 7649625.desched1
 ---------------------------------------------------
2025-02-03 14:21:18: model execution starting 7649625.desched1
 ---------------------------------------------------
2025-02-03 14:22:00: model execution success 7649625.desched1
 ---------------------------------------------------
2025-02-03 14:22:01: case.run error 
ERROR: Model did not complete - see /glade/derecho/scratch/gmarques/g.e30_a05cish.GJRAv4.TL319_t232_wgx3_hycom1_N75.2025.031/run/med.log.7649625.desched1.250203-142111 
 
 ---------------------------------------------------
2025-02-03 14:26:34: case.submit starting 7649670.desched1
 ---------------------------------------------------
2025-02-03 14:26:36: case.submit success 7649670.desched1
 ---------------------------------------------------
2025-02-03 14:26:52: case.run starting 7649669.desched1
 ---------------------------------------------------
2025-02-03 14:26:58: model execution starting 7649669.desched1
 ---------------------------------------------------
2025-02-03 23:23:53: model execution success 7649669.desched1
 ---------------------------------------------------
2025-02-03 23:23:55: case.run success 7649669.desched1
 ---------------------------------------------------
2025-02-03 23:23:56:   Timing files created for run 7649669.desched1.250203-142652
 ---------------------------------------------------
2025-02-03 23:24:19: st_archive starting 7649670.desched1
 ---------------------------------------------------
2025-02-03 23:24:45: st_archive success 7649670.desched1
 ---------------------------------------------------
2025-02-03 23:24:46: case.submit starting 7653469.desched1
 ---------------------------------------------------
2025-02-03 23:24:47: case.submit success 7653469.desched1
 ---------------------------------------------------
2025-02-03 23:25:08: case.run starting 7653468.desched1
 ---------------------------------------------------
2025-02-03 23:25:14: model execution starting 7653468.desched1
 ---------------------------------------------------
2025-02-04 08:20:33: model execution success 7653468.desched1
 ---------------------------------------------------
2025-02-04 08:20:34: case.run success 7653468.desched1
 ---------------------------------------------------
2025-02-04 08:20:36:   Timing files created for run 7653468.desched1.250203-232508
 ---------------------------------------------------
2025-02-04 08:20:56: st_archive starting 7653469.desched1
 ---------------------------------------------------
2025-02-04 08:21:19: st_archive success 7653469.desched1
 ---------------------------------------------------
2025-02-04 08:21:21: case.submit starting 7655324.desched1
 ---------------------------------------------------
