2025-01-10 13:24:37: case.setup starting 
 ---------------------------------------------------
2025-01-10 13:24:39: case.setup success 
 ---------------------------------------------------
2025-01-10 13:24:39:   local git repository created
 ---------------------------------------------------
2025-01-10 13:32:06: xmlchange success <command> ./xmlchange NTASKS_OCN=896  </command>
 ---------------------------------------------------
2025-01-10 13:32:11: case.setup starting 
 ---------------------------------------------------
2025-01-10 13:32:13: case.setup success 
 ---------------------------------------------------
2025-01-10 13:32:36: case.build starting 
 ---------------------------------------------------
2025-01-10 13:42:05: case.build error 
ERROR: BUILD FAIL: mom.buildlib failed, cat /glade/derecho/scratch/gmarques/g.e30_a05cish.GJRAv4.TL319_t232_wgx3_hycom1_N75.2025.005/bld/ocn.bldlog.250110-133237
 ---------------------------------------------------
2025-01-10 13:44:21: case.build starting 
 ---------------------------------------------------
2025-01-10 13:46:42: case.build success 
 ---------------------------------------------------
2025-01-10 13:50:24: xmlchange success <command> ./xmlchange DOUT_S=True  </command>
 ---------------------------------------------------
2025-01-10 13:50:29: xmlchange success <command> ./xmlchange DOUT_S=False  </command>
 ---------------------------------------------------
2025-01-10 13:50:40: case.submit starting 7459091.desched1
 ---------------------------------------------------
2025-01-10 13:50:41: case.submit success 7459091.desched1
 ---------------------------------------------------
2025-01-10 13:51:06: case.run starting 7459091.desched1
 ---------------------------------------------------
2025-01-10 13:51:11: model execution starting 7459091.desched1
 ---------------------------------------------------
2025-01-10 13:56:32: model execution success 7459091.desched1
 ---------------------------------------------------
2025-01-10 13:56:32: case.run success 7459091.desched1
 ---------------------------------------------------
2025-01-10 13:56:32:   Timing files created for run 7459091.desched1.250110-135106
 ---------------------------------------------------
2025-01-10 14:56:09: xmlchange success <command> ./xmlchange STOP_OPTION=nyears,DOUT_S=True,RESUBMIT=10  </command>
 ---------------------------------------------------
2025-01-10 14:59:19: xmlchange success <command> ./xmlchange RESUBMIT=11  </command>
 ---------------------------------------------------
2025-01-10 14:59:48: xmlchange success <command> ./xmlchange PROJECT=CESM2023  </command>
 ---------------------------------------------------
2025-01-10 15:00:04: xmlchange success <command> ./xmlchange PROJECT=CESM0023  </command>
 ---------------------------------------------------
2025-01-10 15:00:20: case.submit starting 7459507.desched1
 ---------------------------------------------------
2025-01-10 15:00:20: case.submit success 7459507.desched1
 ---------------------------------------------------
2025-01-10 15:00:39: case.run starting 7459506.desched1
 ---------------------------------------------------
2025-01-10 15:00:44: model execution starting 7459506.desched1
 ---------------------------------------------------
2025-01-10 15:01:39: xmlchange success <command> ./xmlchange CASE_GIT_REPOSITORY=git@github.com:NCAR/omwg_dev.git  </command>
 ---------------------------------------------------
2025-01-10 15:02:02: build.clean starting 
 ---------------------------------------------------
2025-01-10 15:02:05: build.clean success 
 ---------------------------------------------------
2025-01-10 15:02:07: case.build starting 
 ---------------------------------------------------
2025-01-10 15:13:57: case.build success 
 ---------------------------------------------------
2025-01-10 15:17:18: case.submit starting 7459618.desched1
 ---------------------------------------------------
2025-01-10 15:17:19: case.submit success 7459618.desched1
 ---------------------------------------------------
2025-01-10 16:29:47: case.run starting 7459617.desched1
 ---------------------------------------------------
2025-01-10 16:29:55: model execution starting 7459617.desched1
 ---------------------------------------------------
2025-01-11 01:39:49: model execution success 7459617.desched1
 ---------------------------------------------------
2025-01-11 01:39:51: case.run success 7459617.desched1
 ---------------------------------------------------
2025-01-11 01:39:52:   Timing files created for run 7459617.desched1.250110-162947
 ---------------------------------------------------
2025-01-11 01:40:14: st_archive starting 7459618.desched1
 ---------------------------------------------------
2025-01-11 01:40:42: st_archive success 7459618.desched1
 ---------------------------------------------------
2025-01-11 01:40:45: case.submit starting 7463091.desched1
 ---------------------------------------------------
2025-01-11 01:40:46: case.submit success 7463091.desched1
 ---------------------------------------------------
2025-01-11 01:41:21: case.run starting 7463090.desched1
 ---------------------------------------------------
2025-01-11 01:41:28: model execution starting 7463090.desched1
 ---------------------------------------------------
2025-01-11 10:50:40: model execution success 7463090.desched1
 ---------------------------------------------------
2025-01-11 10:50:41: case.run success 7463090.desched1
 ---------------------------------------------------
