2025-01-10 13:24:37: case.setup starting 
 ---------------------------------------------------
2025-01-10 13:24:39: case.setup success 
 ---------------------------------------------------
2025-01-10 13:24:39:   local git repository created
 ---------------------------------------------------
2025-01-10 13:32:06: xmlchange success <command> ./xmlchange NTASKS_OCN=896  </command>
 ---------------------------------------------------
2025-01-10 13:32:11: case.setup starting 
 ---------------------------------------------------
2025-01-10 13:32:13: case.setup success 
 ---------------------------------------------------
2025-01-10 13:32:36: case.build starting 
 ---------------------------------------------------
2025-01-10 13:42:05: case.build error 
ERROR: BUILD FAIL: mom.buildlib failed, cat /glade/derecho/scratch/gmarques/g.e30_a05cish.GJRAv4.TL319_t232_wgx3_hycom1_N75.2025.005/bld/ocn.bldlog.250110-133237
 ---------------------------------------------------
2025-01-10 13:44:21: case.build starting 
 ---------------------------------------------------
2025-01-10 13:46:42: case.build success 
 ---------------------------------------------------
2025-01-10 13:50:24: xmlchange success <command> ./xmlchange DOUT_S=True  </command>
 ---------------------------------------------------
2025-01-10 13:50:29: xmlchange success <command> ./xmlchange DOUT_S=False  </command>
 ---------------------------------------------------
2025-01-10 13:50:40: case.submit starting 7459091.desched1
 ---------------------------------------------------
2025-01-10 13:50:41: case.submit success 7459091.desched1
 ---------------------------------------------------
2025-01-10 13:51:06: case.run starting 7459091.desched1
 ---------------------------------------------------
2025-01-10 13:51:11: model execution starting 7459091.desched1
 ---------------------------------------------------
2025-01-10 13:56:32: model execution success 7459091.desched1
 ---------------------------------------------------
