2025-01-15 14:58:30: xmlchange success <command> ./xmlchange NTASKS_OCN=896  </command>
 ---------------------------------------------------
2025-01-15 14:58:34: case.setup starting 
 ---------------------------------------------------
2025-01-15 14:58:36: case.setup success 
 ---------------------------------------------------
2025-01-15 14:58:36:   local git repository created
 ---------------------------------------------------
2025-01-15 14:58:54: case.build starting 
 ---------------------------------------------------
2025-01-15 15:00:01: xmlchange success <command> ./xmlchange CASE_GIT_REPOSITORY=git@github.com:NCAR/omwg_dev.git  </command>
 ---------------------------------------------------
2025-01-15 15:00:27: case.build starting 
 ---------------------------------------------------
2025-01-15 15:00:41: case.build starting 
 ---------------------------------------------------
2025-01-15 15:10:53: case.build error 
ERROR: BUILD FAIL: buildexe failed, cat /glade/derecho/scratch/gmarques/g.e30_a05cish.GJRAv4.TL319_t232_wgx3_hycom1_N75.2025.009/bld/cesm.bldlog.250115-150043
 ---------------------------------------------------
2025-01-15 15:15:16: build.clean starting 
 ---------------------------------------------------
2025-01-15 15:15:20: build.clean success 
 ---------------------------------------------------
2025-01-15 15:15:46: case.build starting 
 ---------------------------------------------------
2025-01-15 15:26:14: case.build success 
 ---------------------------------------------------
2025-01-15 15:34:51: xmlchange success <command> ./xmlchange STOP_OPTION=nyears,RESUBMIT=11  </command>
 ---------------------------------------------------
2025-01-15 15:35:57: case.submit starting 7503627.desched1
 ---------------------------------------------------
2025-01-15 15:35:59: case.submit success 7503627.desched1
 ---------------------------------------------------
2025-01-15 15:36:24: case.run starting 7503626.desched1
 ---------------------------------------------------
2025-01-15 15:36:31: model execution starting 7503626.desched1
 ---------------------------------------------------
2025-01-16 01:10:56: model execution success 7503626.desched1
 ---------------------------------------------------
2025-01-16 01:10:58: case.run success 7503626.desched1
 ---------------------------------------------------
2025-01-16 01:10:59:   Timing files created for run 7503626.desched1.250115-153624
 ---------------------------------------------------
2025-01-16 01:11:15: st_archive starting 7503627.desched1
 ---------------------------------------------------
2025-01-16 01:14:01: st_archive success 7503627.desched1
 ---------------------------------------------------
2025-01-16 01:14:04: case.submit starting 7508123.desched1
 ---------------------------------------------------
2025-01-16 01:14:05: case.submit success 7508123.desched1
 ---------------------------------------------------
2025-01-16 03:08:23: case.run starting 7508122.desched1
 ---------------------------------------------------
2025-01-16 03:08:28: model execution starting 7508122.desched1
 ---------------------------------------------------
2025-01-16 12:25:20: model execution success 7508122.desched1
 ---------------------------------------------------
2025-01-16 12:25:21: case.run success 7508122.desched1
 ---------------------------------------------------
2025-01-16 12:25:23:   Timing files created for run 7508122.desched1.250116-030823
 ---------------------------------------------------
2025-01-16 12:25:46: st_archive starting 7508123.desched1
 ---------------------------------------------------
2025-01-16 12:26:17: st_archive success 7508123.desched1
 ---------------------------------------------------
2025-01-16 12:26:19: case.submit starting 7511362.desched1
 ---------------------------------------------------
2025-01-16 12:26:20: case.submit success 7511362.desched1
 ---------------------------------------------------
