"MOM6 diagnostic fields table for CESM case: g.e30_b05.GJRAv4.TL319_t232_wgx3_hycom1_N75.2025.034"
1 1 1 0 0 0
### Section-1: File List
#========================
"g.e30_b05.GJRAv4.TL319_t232_wgx3_hycom1_N75.2025.034.mom6.h.rho2%4yr-%2mo",                        1,  "months", 1, "days",   "time", 1, "months"
"g.e30_b05.GJRAv4.TL319_t232_wgx3_hycom1_N75.2025.034.mom6.h.native%4yr-%2mo",                      1,  "months", 1, "days",   "time", 1, "months"
"g.e30_b05.GJRAv4.TL319_t232_wgx3_hycom1_N75.2025.034.mom6.h.z%4yr-%2mo",                           1,  "months", 1, "days",   "time", 1, "months"
"g.e30_b05.GJRAv4.TL319_t232_wgx3_hycom1_N75.2025.034.mom6.h.sfc%4yr-%2mo",                         1,  "days",   1, "days",   "time", 1, "months"
"g.e30_b05.GJRAv4.TL319_t232_wgx3_hycom1_N75.2025.034.mom6.h.static",                               -1, "days",   1, "days",   "time"
"g.e30_b05.GJRAv4.TL319_t232_wgx3_hycom1_N75.2025.034.mom6.h.Agulhas_Section%4yr-%2mo",             1,  "months", 1, "days",   "time", 1, "months"
"g.e30_b05.GJRAv4.TL319_t232_wgx3_hycom1_N75.2025.034.mom6.h.Barents_Opening%4yr-%2mo",             1,  "months", 1, "days",   "time", 1, "months"
"g.e30_b05.GJRAv4.TL319_t232_wgx3_hycom1_N75.2025.034.mom6.h.Bering_Strait%4yr-%2mo",               1,  "months", 1, "days",   "time", 1, "months"
"g.e30_b05.GJRAv4.TL319_t232_wgx3_hycom1_N75.2025.034.mom6.h.Bosphorus_Strait%4yr-%2mo",            1,  "months", 1, "days",   "time", 1, "months"
"g.e30_b05.GJRAv4.TL319_t232_wgx3_hycom1_N75.2025.034.mom6.h.Davis_Strait%4yr-%2mo",                1,  "months", 1, "days",   "time", 1, "months"
"g.e30_b05.GJRAv4.TL319_t232_wgx3_hycom1_N75.2025.034.mom6.h.Denmark_Strait%4yr-%2mo",              1,  "months", 1, "days",   "time", 1, "months"
"g.e30_b05.GJRAv4.TL319_t232_wgx3_hycom1_N75.2025.034.mom6.h.Drake_Passage%4yr-%2mo",               1,  "months", 1, "days",   "time", 1, "months"
"g.e30_b05.GJRAv4.TL319_t232_wgx3_hycom1_N75.2025.034.mom6.h.English_Channel%4yr-%2mo",             1,  "months", 1, "days",   "time", 1, "months"
"g.e30_b05.GJRAv4.TL319_t232_wgx3_hycom1_N75.2025.034.mom6.h.Fram_Strait%4yr-%2mo",                 1,  "months", 1, "days",   "time", 1, "months"
"g.e30_b05.GJRAv4.TL319_t232_wgx3_hycom1_N75.2025.034.mom6.h.Florida_Bahamas_extended%4yr-%2mo",    1,  "months", 1, "days",   "time", 1, "months"
"g.e30_b05.GJRAv4.TL319_t232_wgx3_hycom1_N75.2025.034.mom6.h.Florida_Cuba%4yr-%2mo",                1,  "months", 1, "days",   "time", 1, "months"
"g.e30_b05.GJRAv4.TL319_t232_wgx3_hycom1_N75.2025.034.mom6.h.Gibraltar_Strait%4yr-%2mo",            1,  "months", 1, "days",   "time", 1, "months"
"g.e30_b05.GJRAv4.TL319_t232_wgx3_hycom1_N75.2025.034.mom6.h.Indonesian_Throughflow%4yr-%2mo",      1,  "months", 1, "days",   "time", 1, "months"
"g.e30_b05.GJRAv4.TL319_t232_wgx3_hycom1_N75.2025.034.mom6.h.Mozambique_Channel%4yr-%2mo",          1,  "months", 1, "days",   "time", 1, "months"
"g.e30_b05.GJRAv4.TL319_t232_wgx3_hycom1_N75.2025.034.mom6.h.Pacific_undercurrent%4yr-%2mo",        1,  "months", 1, "days",   "time", 1, "months"
"g.e30_b05.GJRAv4.TL319_t232_wgx3_hycom1_N75.2025.034.mom6.h.Robeson_Channel%4yr-%2mo",             1,  "months", 1, "days",   "time", 1, "months"
"g.e30_b05.GJRAv4.TL319_t232_wgx3_hycom1_N75.2025.034.mom6.h.Taiwan_Luzon%4yr-%2mo",                1,  "months", 1, "days",   "time", 1, "months"
"g.e30_b05.GJRAv4.TL319_t232_wgx3_hycom1_N75.2025.034.mom6.h.Windward_Passage%4yr-%2mo",            1,  "months", 1, "days",   "time", 1, "months"
"g.e30_b05.GJRAv4.TL319_t232_wgx3_hycom1_N75.2025.034.mom6.h.Yucatan_Channel%4yr-%2mo",             1,  "months", 1, "days",   "time", 1, "months"

### Section-2: Fields List
#=========================
# "g.e30_b05.GJRAv4.TL319_t232_wgx3_hycom1_N75.2025.034.mom6.h.rho2%4yr-%2mo"
"ocean_model_rho2", "volcello","volcello","g.e30_b05.GJRAv4.TL319_t232_wgx3_hycom1_N75.2025.034.mom6.h.rho2%4yr-%2mo", "all", "mean", "none", 2
"ocean_model_rho2", "vmo",     "vmo",     "g.e30_b05.GJRAv4.TL319_t232_wgx3_hycom1_N75.2025.034.mom6.h.rho2%4yr-%2mo", "all", "mean", "none", 2
"ocean_model_rho2", "vhGM",    "vhGM",    "g.e30_b05.GJRAv4.TL319_t232_wgx3_hycom1_N75.2025.034.mom6.h.rho2%4yr-%2mo", "all", "mean", "none", 2
"ocean_model_rho2", "vhml",    "vhml",    "g.e30_b05.GJRAv4.TL319_t232_wgx3_hycom1_N75.2025.034.mom6.h.rho2%4yr-%2mo", "all", "mean", "none", 2
"ocean_model_rho2", "umo",     "umo",     "g.e30_b05.GJRAv4.TL319_t232_wgx3_hycom1_N75.2025.034.mom6.h.rho2%4yr-%2mo", "all", "mean", "none", 2
"ocean_model_rho2", "uhGM",    "uhGM",    "g.e30_b05.GJRAv4.TL319_t232_wgx3_hycom1_N75.2025.034.mom6.h.rho2%4yr-%2mo", "all", "mean", "none", 2
"ocean_model_rho2", "uhml",    "uhml",    "g.e30_b05.GJRAv4.TL319_t232_wgx3_hycom1_N75.2025.034.mom6.h.rho2%4yr-%2mo", "all", "mean", "none", 2
"ocean_model_rho2", "thetao",  "thetao",  "g.e30_b05.GJRAv4.TL319_t232_wgx3_hycom1_N75.2025.034.mom6.h.rho2%4yr-%2mo", "all", "mean", "none", 2
"ocean_model_rho2", "so",      "so",      "g.e30_b05.GJRAv4.TL319_t232_wgx3_hycom1_N75.2025.034.mom6.h.rho2%4yr-%2mo", "all", "mean", "none", 2
"ocean_model_rho2", "agessc",  "agessc",  "g.e30_b05.GJRAv4.TL319_t232_wgx3_hycom1_N75.2025.034.mom6.h.rho2%4yr-%2mo", "all", "mean", "none", 2

# "g.e30_b05.GJRAv4.TL319_t232_wgx3_hycom1_N75.2025.034.mom6.h.native%4yr-%2mo"
"ocean_model", "soga",         "soga",         "g.e30_b05.GJRAv4.TL319_t232_wgx3_hycom1_N75.2025.034.mom6.h.native%4yr-%2mo", "all", "mean", "none", 2
"ocean_model", "thetaoga",     "thetaoga",     "g.e30_b05.GJRAv4.TL319_t232_wgx3_hycom1_N75.2025.034.mom6.h.native%4yr-%2mo", "all", "mean", "none", 2
"ocean_model", "uh",           "uh",           "g.e30_b05.GJRAv4.TL319_t232_wgx3_hycom1_N75.2025.034.mom6.h.native%4yr-%2mo", "all", "mean", "none", 2
"ocean_model", "vh",           "vh",           "g.e30_b05.GJRAv4.TL319_t232_wgx3_hycom1_N75.2025.034.mom6.h.native%4yr-%2mo", "all", "mean", "none", 2
"ocean_model", "vhbt",         "vhbt",         "g.e30_b05.GJRAv4.TL319_t232_wgx3_hycom1_N75.2025.034.mom6.h.native%4yr-%2mo", "all", "mean", "none", 2
"ocean_model", "uhbt",         "uhbt",         "g.e30_b05.GJRAv4.TL319_t232_wgx3_hycom1_N75.2025.034.mom6.h.native%4yr-%2mo", "all", "mean", "none", 2
"ocean_model", "rsdo",         "rsdo",         "g.e30_b05.GJRAv4.TL319_t232_wgx3_hycom1_N75.2025.034.mom6.h.native%4yr-%2mo", "all", "mean", "none", 2
"ocean_model", "agessc",       "agessc",       "g.e30_b05.GJRAv4.TL319_t232_wgx3_hycom1_N75.2025.034.mom6.h.native%4yr-%2mo", "all", "mean", "none", 2
"ocean_model", "T_ady_2d",     "T_ady_2d",     "g.e30_b05.GJRAv4.TL319_t232_wgx3_hycom1_N75.2025.034.mom6.h.native%4yr-%2mo", "all", "mean", "none", 2
"ocean_model", "T_adx_2d",     "T_adx_2d",     "g.e30_b05.GJRAv4.TL319_t232_wgx3_hycom1_N75.2025.034.mom6.h.native%4yr-%2mo", "all", "mean", "none", 2
"ocean_model", "T_diffy_2d",   "T_diffy_2d",   "g.e30_b05.GJRAv4.TL319_t232_wgx3_hycom1_N75.2025.034.mom6.h.native%4yr-%2mo", "all", "mean", "none", 2
"ocean_model", "T_diffx_2d",   "T_diffx_2d",   "g.e30_b05.GJRAv4.TL319_t232_wgx3_hycom1_N75.2025.034.mom6.h.native%4yr-%2mo", "all", "mean", "none", 2
"ocean_model", "T_hbd_diffx_2d","T_hbd_diffx_2d","g.e30_b05.GJRAv4.TL319_t232_wgx3_hycom1_N75.2025.034.mom6.h.native%4yr-%2mo", "all", "mean", "none", 2
"ocean_model", "T_hbd_diffy_2d","T_hbd_diffy_2d","g.e30_b05.GJRAv4.TL319_t232_wgx3_hycom1_N75.2025.034.mom6.h.native%4yr-%2mo", "all", "mean", "none", 2
"ocean_model", "diftrelo",     "diftrelo",     "g.e30_b05.GJRAv4.TL319_t232_wgx3_hycom1_N75.2025.034.mom6.h.native%4yr-%2mo", "all", "mean", "none", 2
"ocean_model", "diftrblo",     "diftrblo",     "g.e30_b05.GJRAv4.TL319_t232_wgx3_hycom1_N75.2025.034.mom6.h.native%4yr-%2mo", "all", "mean", "none", 2
"ocean_model", "difmxybo",     "difmxybo",     "g.e30_b05.GJRAv4.TL319_t232_wgx3_hycom1_N75.2025.034.mom6.h.native%4yr-%2mo", "all", "mean", "none", 2
"ocean_model", "difmxylo",     "difmxylo",     "g.e30_b05.GJRAv4.TL319_t232_wgx3_hycom1_N75.2025.034.mom6.h.native%4yr-%2mo", "all", "mean", "none", 2
"ocean_model", "volcello",     "volcello",     "g.e30_b05.GJRAv4.TL319_t232_wgx3_hycom1_N75.2025.034.mom6.h.native%4yr-%2mo", "all", "mean", "none", 2
"ocean_model", "vmo",          "vmo",          "g.e30_b05.GJRAv4.TL319_t232_wgx3_hycom1_N75.2025.034.mom6.h.native%4yr-%2mo", "all", "mean", "none", 2
"ocean_model", "vhGM",         "vhGM",         "g.e30_b05.GJRAv4.TL319_t232_wgx3_hycom1_N75.2025.034.mom6.h.native%4yr-%2mo", "all", "mean", "none", 2
"ocean_model", "vhml",         "vhml",         "g.e30_b05.GJRAv4.TL319_t232_wgx3_hycom1_N75.2025.034.mom6.h.native%4yr-%2mo", "all", "mean", "none", 2
"ocean_model", "umo",          "umo",          "g.e30_b05.GJRAv4.TL319_t232_wgx3_hycom1_N75.2025.034.mom6.h.native%4yr-%2mo", "all", "mean", "none", 2
"ocean_model", "uhGM",         "uhGM",         "g.e30_b05.GJRAv4.TL319_t232_wgx3_hycom1_N75.2025.034.mom6.h.native%4yr-%2mo", "all", "mean", "none", 2
"ocean_model", "uhml",         "uhml",         "g.e30_b05.GJRAv4.TL319_t232_wgx3_hycom1_N75.2025.034.mom6.h.native%4yr-%2mo", "all", "mean", "none", 2
"ocean_model", "uo",           "uo",           "g.e30_b05.GJRAv4.TL319_t232_wgx3_hycom1_N75.2025.034.mom6.h.native%4yr-%2mo", "all", "mean", "none", 2
"ocean_model", "vo",           "vo",           "g.e30_b05.GJRAv4.TL319_t232_wgx3_hycom1_N75.2025.034.mom6.h.native%4yr-%2mo", "all", "mean", "none", 2
"ocean_model", "h",            "h",            "g.e30_b05.GJRAv4.TL319_t232_wgx3_hycom1_N75.2025.034.mom6.h.native%4yr-%2mo", "all", "mean", "none", 2
"ocean_model", "e",            "e",            "g.e30_b05.GJRAv4.TL319_t232_wgx3_hycom1_N75.2025.034.mom6.h.native%4yr-%2mo", "all", "mean", "none", 2
"ocean_model", "thetao",       "thetao",       "g.e30_b05.GJRAv4.TL319_t232_wgx3_hycom1_N75.2025.034.mom6.h.native%4yr-%2mo", "all", "mean", "none", 2
"ocean_model", "so",           "so",           "g.e30_b05.GJRAv4.TL319_t232_wgx3_hycom1_N75.2025.034.mom6.h.native%4yr-%2mo", "all", "mean", "none", 2
"ocean_model", "KE",           "KE",           "g.e30_b05.GJRAv4.TL319_t232_wgx3_hycom1_N75.2025.034.mom6.h.native%4yr-%2mo", "all", "mean", "none", 2
"ocean_model", "MEKE",         "MEKE",         "g.e30_b05.GJRAv4.TL319_t232_wgx3_hycom1_N75.2025.034.mom6.h.native%4yr-%2mo", "all", "mean", "none", 2
"ocean_model", "rhopot0",      "rhopot0",      "g.e30_b05.GJRAv4.TL319_t232_wgx3_hycom1_N75.2025.034.mom6.h.native%4yr-%2mo", "all", "mean", "none", 2
"ocean_model", "KPP_OBLdepth", "oml",          "g.e30_b05.GJRAv4.TL319_t232_wgx3_hycom1_N75.2025.034.mom6.h.native%4yr-%2mo", "all", "mean", "none", 2
"ocean_model", "KPP_OBLdepth", "oml_min",      "g.e30_b05.GJRAv4.TL319_t232_wgx3_hycom1_N75.2025.034.mom6.h.native%4yr-%2mo", "all", "min", "none", 2
"ocean_model", "KPP_OBLdepth", "oml_max",      "g.e30_b05.GJRAv4.TL319_t232_wgx3_hycom1_N75.2025.034.mom6.h.native%4yr-%2mo", "all", "max", "none", 2
"ocean_model", "tauuo",        "tauuo",        "g.e30_b05.GJRAv4.TL319_t232_wgx3_hycom1_N75.2025.034.mom6.h.native%4yr-%2mo", "all", "mean", "none", 2
"ocean_model", "tauvo",        "tauvo",        "g.e30_b05.GJRAv4.TL319_t232_wgx3_hycom1_N75.2025.034.mom6.h.native%4yr-%2mo", "all", "mean", "none", 2
"ocean_model", "friver",       "friver",       "g.e30_b05.GJRAv4.TL319_t232_wgx3_hycom1_N75.2025.034.mom6.h.native%4yr-%2mo", "all", "mean", "none", 2
"ocean_model", "prsn",         "prsn",         "g.e30_b05.GJRAv4.TL319_t232_wgx3_hycom1_N75.2025.034.mom6.h.native%4yr-%2mo", "all", "mean", "none", 2
"ocean_model", "prlq",         "prlq",         "g.e30_b05.GJRAv4.TL319_t232_wgx3_hycom1_N75.2025.034.mom6.h.native%4yr-%2mo", "all", "mean", "none", 2
"ocean_model", "evs",          "evs",          "g.e30_b05.GJRAv4.TL319_t232_wgx3_hycom1_N75.2025.034.mom6.h.native%4yr-%2mo", "all", "mean", "none", 2
"ocean_model", "hfsso",        "hfsso",        "g.e30_b05.GJRAv4.TL319_t232_wgx3_hycom1_N75.2025.034.mom6.h.native%4yr-%2mo", "all", "mean", "none", 2
"ocean_model", "rlntds",       "rlntds",       "g.e30_b05.GJRAv4.TL319_t232_wgx3_hycom1_N75.2025.034.mom6.h.native%4yr-%2mo", "all", "mean", "none", 2
"ocean_model", "hfsnthermds",  "hfsnthermds",  "g.e30_b05.GJRAv4.TL319_t232_wgx3_hycom1_N75.2025.034.mom6.h.native%4yr-%2mo", "all", "mean", "none", 2
"ocean_model", "sfdsi",        "sfdsi",        "g.e30_b05.GJRAv4.TL319_t232_wgx3_hycom1_N75.2025.034.mom6.h.native%4yr-%2mo", "all", "mean", "none", 2
"ocean_model", "rsntds",       "rsntds",       "g.e30_b05.GJRAv4.TL319_t232_wgx3_hycom1_N75.2025.034.mom6.h.native%4yr-%2mo", "all", "mean", "none", 2
"ocean_model", "hfds",         "hfds",         "g.e30_b05.GJRAv4.TL319_t232_wgx3_hycom1_N75.2025.034.mom6.h.native%4yr-%2mo", "all", "mean", "none", 2
"ocean_model", "ustar",        "ustar",        "g.e30_b05.GJRAv4.TL319_t232_wgx3_hycom1_N75.2025.034.mom6.h.native%4yr-%2mo", "all", "mean", "none", 2
"ocean_model", "hfsifrazil",   "hfsifrazil",   "g.e30_b05.GJRAv4.TL319_t232_wgx3_hycom1_N75.2025.034.mom6.h.native%4yr-%2mo", "all", "mean", "none", 2
"ocean_model", "wfo",          "wfo",          "g.e30_b05.GJRAv4.TL319_t232_wgx3_hycom1_N75.2025.034.mom6.h.native%4yr-%2mo", "all", "mean", "none", 2
"ocean_model", "vprec",        "vprec",        "g.e30_b05.GJRAv4.TL319_t232_wgx3_hycom1_N75.2025.034.mom6.h.native%4yr-%2mo", "all", "mean", "none", 2
"ocean_model", "ficeberg",     "ficeberg",     "g.e30_b05.GJRAv4.TL319_t232_wgx3_hycom1_N75.2025.034.mom6.h.native%4yr-%2mo", "all", "mean", "none", 2
"ocean_model", "fsitherm",     "fsitherm",     "g.e30_b05.GJRAv4.TL319_t232_wgx3_hycom1_N75.2025.034.mom6.h.native%4yr-%2mo", "all", "mean", "none", 2
"ocean_model", "hflso",        "hflso",        "g.e30_b05.GJRAv4.TL319_t232_wgx3_hycom1_N75.2025.034.mom6.h.native%4yr-%2mo", "all", "mean", "none", 2
"ocean_model", "pso",          "pso",          "g.e30_b05.GJRAv4.TL319_t232_wgx3_hycom1_N75.2025.034.mom6.h.native%4yr-%2mo", "all", "mean", "none", 2
"ocean_model", "seaice_melt_heat","seaice_melt_heat","g.e30_b05.GJRAv4.TL319_t232_wgx3_hycom1_N75.2025.034.mom6.h.native%4yr-%2mo", "all", "mean", "none", 2
"ocean_model", "Heat_PmE",     "Heat_PmE",     "g.e30_b05.GJRAv4.TL319_t232_wgx3_hycom1_N75.2025.034.mom6.h.native%4yr-%2mo", "all", "mean", "none", 2
"ocean_model", "salt_flux_added","salt_flux_added","g.e30_b05.GJRAv4.TL319_t232_wgx3_hycom1_N75.2025.034.mom6.h.native%4yr-%2mo", "all", "mean", "none", 2
"ocean_model", "heat_content_lrunoff","heat_content_lrunoff","g.e30_b05.GJRAv4.TL319_t232_wgx3_hycom1_N75.2025.034.mom6.h.native%4yr-%2mo", "all", "mean", "none", 2
"ocean_model", "heat_content_frunoff","heat_content_frunoff","g.e30_b05.GJRAv4.TL319_t232_wgx3_hycom1_N75.2025.034.mom6.h.native%4yr-%2mo", "all", "mean", "none", 2
"ocean_model", "heat_content_lprec","heat_content_lprec","g.e30_b05.GJRAv4.TL319_t232_wgx3_hycom1_N75.2025.034.mom6.h.native%4yr-%2mo", "all", "mean", "none", 2
"ocean_model", "heat_content_fprec","heat_content_fprec","g.e30_b05.GJRAv4.TL319_t232_wgx3_hycom1_N75.2025.034.mom6.h.native%4yr-%2mo", "all", "mean", "none", 2
"ocean_model", "heat_content_vprec","heat_content_vprec","g.e30_b05.GJRAv4.TL319_t232_wgx3_hycom1_N75.2025.034.mom6.h.native%4yr-%2mo", "all", "mean", "none", 2
"ocean_model", "heat_content_cond","heat_content_cond","g.e30_b05.GJRAv4.TL319_t232_wgx3_hycom1_N75.2025.034.mom6.h.native%4yr-%2mo", "all", "mean", "none", 2
"ocean_model", "heat_content_evap","heat_content_evap","g.e30_b05.GJRAv4.TL319_t232_wgx3_hycom1_N75.2025.034.mom6.h.native%4yr-%2mo", "all", "mean", "none", 2
"ocean_model", "tos",          "tos",          "g.e30_b05.GJRAv4.TL319_t232_wgx3_hycom1_N75.2025.034.mom6.h.native%4yr-%2mo", "all", "mean", "none", 2
"ocean_model", "tos",          "tos_min",      "g.e30_b05.GJRAv4.TL319_t232_wgx3_hycom1_N75.2025.034.mom6.h.native%4yr-%2mo", "all", "min", "none", 2
"ocean_model", "tos",          "tos_max",      "g.e30_b05.GJRAv4.TL319_t232_wgx3_hycom1_N75.2025.034.mom6.h.native%4yr-%2mo", "all", "max", "none", 2
"ocean_model", "sos",          "sos",          "g.e30_b05.GJRAv4.TL319_t232_wgx3_hycom1_N75.2025.034.mom6.h.native%4yr-%2mo", "all", "mean", "none", 2
"ocean_model", "sos",          "sos_min",      "g.e30_b05.GJRAv4.TL319_t232_wgx3_hycom1_N75.2025.034.mom6.h.native%4yr-%2mo", "all", "min", "none", 2
"ocean_model", "sos",          "sos_max",      "g.e30_b05.GJRAv4.TL319_t232_wgx3_hycom1_N75.2025.034.mom6.h.native%4yr-%2mo", "all", "max", "none", 2
"ocean_model", "SSU",          "SSU",          "g.e30_b05.GJRAv4.TL319_t232_wgx3_hycom1_N75.2025.034.mom6.h.native%4yr-%2mo", "all", "mean", "none", 2
"ocean_model", "SSV",          "SSV",          "g.e30_b05.GJRAv4.TL319_t232_wgx3_hycom1_N75.2025.034.mom6.h.native%4yr-%2mo", "all", "mean", "none", 2
"ocean_model", "opottempmint", "opottempmint", "g.e30_b05.GJRAv4.TL319_t232_wgx3_hycom1_N75.2025.034.mom6.h.native%4yr-%2mo", "all", "mean", "none", 2
"ocean_model", "somint",       "somint",       "g.e30_b05.GJRAv4.TL319_t232_wgx3_hycom1_N75.2025.034.mom6.h.native%4yr-%2mo", "all", "mean", "none", 2
"ocean_model", "Rd_dx",        "Rd_dx",        "g.e30_b05.GJRAv4.TL319_t232_wgx3_hycom1_N75.2025.034.mom6.h.native%4yr-%2mo", "all", "mean", "none", 2
"ocean_model", "speed",        "speed",        "g.e30_b05.GJRAv4.TL319_t232_wgx3_hycom1_N75.2025.034.mom6.h.native%4yr-%2mo", "all", "mean", "none", 2
"ocean_model", "mlotst",       "mlotst",       "g.e30_b05.GJRAv4.TL319_t232_wgx3_hycom1_N75.2025.034.mom6.h.native%4yr-%2mo", "all", "mean", "none", 2
"ocean_model", "mlotst",       "mlots_min",    "g.e30_b05.GJRAv4.TL319_t232_wgx3_hycom1_N75.2025.034.mom6.h.native%4yr-%2mo", "all", "min", "none", 2
"ocean_model", "mlotst",       "mlots_max",    "g.e30_b05.GJRAv4.TL319_t232_wgx3_hycom1_N75.2025.034.mom6.h.native%4yr-%2mo", "all", "max", "none", 2
"ocean_model", "sst_global",   "sst_global",   "g.e30_b05.GJRAv4.TL319_t232_wgx3_hycom1_N75.2025.034.mom6.h.native%4yr-%2mo", "all", "mean", "none", 2
"ocean_model", "sss_global",   "sss_global",   "g.e30_b05.GJRAv4.TL319_t232_wgx3_hycom1_N75.2025.034.mom6.h.native%4yr-%2mo", "all", "mean", "none", 2
"ocean_model", "SSH",          "SSH",          "g.e30_b05.GJRAv4.TL319_t232_wgx3_hycom1_N75.2025.034.mom6.h.native%4yr-%2mo", "all", "mean", "none", 2
"ocean_model", "mass_wt",      "mass_wt",      "g.e30_b05.GJRAv4.TL319_t232_wgx3_hycom1_N75.2025.034.mom6.h.native%4yr-%2mo", "all", "mean", "none", 2

# "g.e30_b05.GJRAv4.TL319_t232_wgx3_hycom1_N75.2025.034.mom6.h.z%4yr-%2mo"
"ocean_model_z", "uo",      "uo",      "g.e30_b05.GJRAv4.TL319_t232_wgx3_hycom1_N75.2025.034.mom6.h.z%4yr-%2mo", "all", "mean", "none", 2
"ocean_model_z", "vo",      "vo",      "g.e30_b05.GJRAv4.TL319_t232_wgx3_hycom1_N75.2025.034.mom6.h.z%4yr-%2mo", "all", "mean", "none", 2
"ocean_model_z", "h",       "h",       "g.e30_b05.GJRAv4.TL319_t232_wgx3_hycom1_N75.2025.034.mom6.h.z%4yr-%2mo", "all", "mean", "none", 2
"ocean_model_z", "thetao",  "thetao",  "g.e30_b05.GJRAv4.TL319_t232_wgx3_hycom1_N75.2025.034.mom6.h.z%4yr-%2mo", "all", "mean", "none", 2
"ocean_model_z", "so",      "so",      "g.e30_b05.GJRAv4.TL319_t232_wgx3_hycom1_N75.2025.034.mom6.h.z%4yr-%2mo", "all", "mean", "none", 2
"ocean_model_z", "agessc",  "agessc",  "g.e30_b05.GJRAv4.TL319_t232_wgx3_hycom1_N75.2025.034.mom6.h.z%4yr-%2mo", "all", "mean", "none", 2
"ocean_model_z", "rhopot0", "rhopot0", "g.e30_b05.GJRAv4.TL319_t232_wgx3_hycom1_N75.2025.034.mom6.h.z%4yr-%2mo", "all", "mean", "none", 2
"ocean_model_z", "N2_int",  "N2_int",  "g.e30_b05.GJRAv4.TL319_t232_wgx3_hycom1_N75.2025.034.mom6.h.z%4yr-%2mo", "all", "mean", "none", 2
"ocean_model_z", "volcello","volcello","g.e30_b05.GJRAv4.TL319_t232_wgx3_hycom1_N75.2025.034.mom6.h.z%4yr-%2mo", "all", "mean", "none", 2
"ocean_model_z", "vmo",     "vmo",     "g.e30_b05.GJRAv4.TL319_t232_wgx3_hycom1_N75.2025.034.mom6.h.z%4yr-%2mo", "all", "mean", "none", 2
"ocean_model_z", "vhGM",    "vhGM",    "g.e30_b05.GJRAv4.TL319_t232_wgx3_hycom1_N75.2025.034.mom6.h.z%4yr-%2mo", "all", "mean", "none", 2
"ocean_model_z", "vhml",    "vhml",    "g.e30_b05.GJRAv4.TL319_t232_wgx3_hycom1_N75.2025.034.mom6.h.z%4yr-%2mo", "all", "mean", "none", 2
"ocean_model_z", "umo",     "umo",     "g.e30_b05.GJRAv4.TL319_t232_wgx3_hycom1_N75.2025.034.mom6.h.z%4yr-%2mo", "all", "mean", "none", 2
"ocean_model_z", "uhGM",    "uhGM",    "g.e30_b05.GJRAv4.TL319_t232_wgx3_hycom1_N75.2025.034.mom6.h.z%4yr-%2mo", "all", "mean", "none", 2
"ocean_model_z", "uhml",    "uhml",    "g.e30_b05.GJRAv4.TL319_t232_wgx3_hycom1_N75.2025.034.mom6.h.z%4yr-%2mo", "all", "mean", "none", 2

# "g.e30_b05.GJRAv4.TL319_t232_wgx3_hycom1_N75.2025.034.mom6.h.sfc%4yr-%2mo"
"ocean_model", "tos",          "tos",          "g.e30_b05.GJRAv4.TL319_t232_wgx3_hycom1_N75.2025.034.mom6.h.sfc%4yr-%2mo", "all", "mean", "none", 2
"ocean_model", "tos",          "tos_min",      "g.e30_b05.GJRAv4.TL319_t232_wgx3_hycom1_N75.2025.034.mom6.h.sfc%4yr-%2mo", "all", "min", "none", 2
"ocean_model", "tos",          "tos_max",      "g.e30_b05.GJRAv4.TL319_t232_wgx3_hycom1_N75.2025.034.mom6.h.sfc%4yr-%2mo", "all", "max", "none", 2
"ocean_model", "sos",          "sos",          "g.e30_b05.GJRAv4.TL319_t232_wgx3_hycom1_N75.2025.034.mom6.h.sfc%4yr-%2mo", "all", "mean", "none", 2
"ocean_model", "sos",          "sos_min",      "g.e30_b05.GJRAv4.TL319_t232_wgx3_hycom1_N75.2025.034.mom6.h.sfc%4yr-%2mo", "all", "min", "none", 2
"ocean_model", "sos",          "sos_max",      "g.e30_b05.GJRAv4.TL319_t232_wgx3_hycom1_N75.2025.034.mom6.h.sfc%4yr-%2mo", "all", "max", "none", 2
"ocean_model", "SSU",          "SSU",          "g.e30_b05.GJRAv4.TL319_t232_wgx3_hycom1_N75.2025.034.mom6.h.sfc%4yr-%2mo", "all", "mean", "none", 2
"ocean_model", "SSV",          "SSV",          "g.e30_b05.GJRAv4.TL319_t232_wgx3_hycom1_N75.2025.034.mom6.h.sfc%4yr-%2mo", "all", "mean", "none", 2
"ocean_model", "opottempmint", "opottempmint", "g.e30_b05.GJRAv4.TL319_t232_wgx3_hycom1_N75.2025.034.mom6.h.sfc%4yr-%2mo", "all", "mean", "none", 2
"ocean_model", "somint",       "somint",       "g.e30_b05.GJRAv4.TL319_t232_wgx3_hycom1_N75.2025.034.mom6.h.sfc%4yr-%2mo", "all", "mean", "none", 2
"ocean_model", "Rd_dx",        "Rd_dx",        "g.e30_b05.GJRAv4.TL319_t232_wgx3_hycom1_N75.2025.034.mom6.h.sfc%4yr-%2mo", "all", "mean", "none", 2
"ocean_model", "speed",        "speed",        "g.e30_b05.GJRAv4.TL319_t232_wgx3_hycom1_N75.2025.034.mom6.h.sfc%4yr-%2mo", "all", "mean", "none", 2
"ocean_model", "mlotst",       "mlotst",       "g.e30_b05.GJRAv4.TL319_t232_wgx3_hycom1_N75.2025.034.mom6.h.sfc%4yr-%2mo", "all", "mean", "none", 2
"ocean_model", "mlotst",       "mlots_min",    "g.e30_b05.GJRAv4.TL319_t232_wgx3_hycom1_N75.2025.034.mom6.h.sfc%4yr-%2mo", "all", "min", "none", 2
"ocean_model", "mlotst",       "mlots_max",    "g.e30_b05.GJRAv4.TL319_t232_wgx3_hycom1_N75.2025.034.mom6.h.sfc%4yr-%2mo", "all", "max", "none", 2
"ocean_model", "zos",          "zos",          "g.e30_b05.GJRAv4.TL319_t232_wgx3_hycom1_N75.2025.034.mom6.h.sfc%4yr-%2mo", "all", "mean", "none", 2
"ocean_model", "zossq",        "zossq",        "g.e30_b05.GJRAv4.TL319_t232_wgx3_hycom1_N75.2025.034.mom6.h.sfc%4yr-%2mo", "all", "mean", "none", 2
"ocean_model", "KPP_OBLdepth", "oml",          "g.e30_b05.GJRAv4.TL319_t232_wgx3_hycom1_N75.2025.034.mom6.h.sfc%4yr-%2mo", "all", "mean", "none", 2
"ocean_model", "KPP_OBLdepth", "oml_min",      "g.e30_b05.GJRAv4.TL319_t232_wgx3_hycom1_N75.2025.034.mom6.h.sfc%4yr-%2mo", "all", "min", "none", 2
"ocean_model", "KPP_OBLdepth", "oml_max",      "g.e30_b05.GJRAv4.TL319_t232_wgx3_hycom1_N75.2025.034.mom6.h.sfc%4yr-%2mo", "all", "max", "none", 2

# "g.e30_b05.GJRAv4.TL319_t232_wgx3_hycom1_N75.2025.034.mom6.h.static"
"ocean_model", "geolon",      "geolon",      "g.e30_b05.GJRAv4.TL319_t232_wgx3_hycom1_N75.2025.034.mom6.h.static", "all", ".false.", "none", 2
"ocean_model", "geolat",      "geolat",      "g.e30_b05.GJRAv4.TL319_t232_wgx3_hycom1_N75.2025.034.mom6.h.static", "all", ".false.", "none", 2
"ocean_model", "geolon_c",    "geolon_c",    "g.e30_b05.GJRAv4.TL319_t232_wgx3_hycom1_N75.2025.034.mom6.h.static", "all", ".false.", "none", 2
"ocean_model", "geolat_c",    "geolat_c",    "g.e30_b05.GJRAv4.TL319_t232_wgx3_hycom1_N75.2025.034.mom6.h.static", "all", ".false.", "none", 2
"ocean_model", "geolon_u",    "geolon_u",    "g.e30_b05.GJRAv4.TL319_t232_wgx3_hycom1_N75.2025.034.mom6.h.static", "all", ".false.", "none", 2
"ocean_model", "geolat_u",    "geolat_u",    "g.e30_b05.GJRAv4.TL319_t232_wgx3_hycom1_N75.2025.034.mom6.h.static", "all", ".false.", "none", 2
"ocean_model", "geolon_v",    "geolon_v",    "g.e30_b05.GJRAv4.TL319_t232_wgx3_hycom1_N75.2025.034.mom6.h.static", "all", ".false.", "none", 2
"ocean_model", "geolat_v",    "geolat_v",    "g.e30_b05.GJRAv4.TL319_t232_wgx3_hycom1_N75.2025.034.mom6.h.static", "all", ".false.", "none", 2
"ocean_model", "deptho",      "deptho",      "g.e30_b05.GJRAv4.TL319_t232_wgx3_hycom1_N75.2025.034.mom6.h.static", "all", ".false.", "none", 2
"ocean_model", "wet",         "wet",         "g.e30_b05.GJRAv4.TL319_t232_wgx3_hycom1_N75.2025.034.mom6.h.static", "all", ".false.", "none", 2
"ocean_model", "wet_c",       "wet_c",       "g.e30_b05.GJRAv4.TL319_t232_wgx3_hycom1_N75.2025.034.mom6.h.static", "all", ".false.", "none", 2
"ocean_model", "wet_u",       "wet_u",       "g.e30_b05.GJRAv4.TL319_t232_wgx3_hycom1_N75.2025.034.mom6.h.static", "all", ".false.", "none", 2
"ocean_model", "wet_v",       "wet_v",       "g.e30_b05.GJRAv4.TL319_t232_wgx3_hycom1_N75.2025.034.mom6.h.static", "all", ".false.", "none", 2
"ocean_model", "Coriolis",    "Coriolis",    "g.e30_b05.GJRAv4.TL319_t232_wgx3_hycom1_N75.2025.034.mom6.h.static", "all", ".false.", "none", 2
"ocean_model", "areacello",   "areacello",   "g.e30_b05.GJRAv4.TL319_t232_wgx3_hycom1_N75.2025.034.mom6.h.static", "all", ".false.", "none", 2
"ocean_model", "areacello_cu","areacello_cu","g.e30_b05.GJRAv4.TL319_t232_wgx3_hycom1_N75.2025.034.mom6.h.static", "all", ".false.", "none", 2
"ocean_model", "areacello_cv","areacello_cv","g.e30_b05.GJRAv4.TL319_t232_wgx3_hycom1_N75.2025.034.mom6.h.static", "all", ".false.", "none", 2
"ocean_model", "areacello_bu","areacello_bu","g.e30_b05.GJRAv4.TL319_t232_wgx3_hycom1_N75.2025.034.mom6.h.static", "all", ".false.", "none", 2
"ocean_model", "sin_rot",     "sin_rot",     "g.e30_b05.GJRAv4.TL319_t232_wgx3_hycom1_N75.2025.034.mom6.h.static", "all", ".false.", "none", 2
"ocean_model", "cos_rot",     "cos_rot",     "g.e30_b05.GJRAv4.TL319_t232_wgx3_hycom1_N75.2025.034.mom6.h.static", "all", ".false.", "none", 2
"ocean_model", "C_P",         "C_P",         "g.e30_b05.GJRAv4.TL319_t232_wgx3_hycom1_N75.2025.034.mom6.h.static", "all", ".false.", "none", 2
"ocean_model", "Rho_0",       "Rho_0",       "g.e30_b05.GJRAv4.TL319_t232_wgx3_hycom1_N75.2025.034.mom6.h.static", "all", ".false.", "none", 2
"ocean_model", "Geo_heat",    "Geo_heat",    "g.e30_b05.GJRAv4.TL319_t232_wgx3_hycom1_N75.2025.034.mom6.h.static", "all", ".false.", "none", 2

# "g.e30_b05.GJRAv4.TL319_t232_wgx3_hycom1_N75.2025.034.mom6.h.Agulhas_Section%4yr-%2mo"
"ocean_model_z", "volcello","volcello","g.e30_b05.GJRAv4.TL319_t232_wgx3_hycom1_N75.2025.034.mom6.h.Agulhas_Section%4yr-%2mo", "all", ".true.", "20.1 20.1 -69.8 -34.6 -1 -1", 2
"ocean_model_z", "thetao",  "thetao",  "g.e30_b05.GJRAv4.TL319_t232_wgx3_hycom1_N75.2025.034.mom6.h.Agulhas_Section%4yr-%2mo", "all", ".true.", "20.1 20.1 -69.8 -34.6 -1 -1", 2
"ocean_model_z", "so",      "so",      "g.e30_b05.GJRAv4.TL319_t232_wgx3_hycom1_N75.2025.034.mom6.h.Agulhas_Section%4yr-%2mo", "all", ".true.", "20.1 20.1 -69.8 -34.6 -1 -1", 2
"ocean_model_z", "umo",     "umo",     "g.e30_b05.GJRAv4.TL319_t232_wgx3_hycom1_N75.2025.034.mom6.h.Agulhas_Section%4yr-%2mo", "all", ".true.", "20.1 20.1 -69.8 -34.6 -1 -1", 2
"ocean_model_z", "uo",      "uo",      "g.e30_b05.GJRAv4.TL319_t232_wgx3_hycom1_N75.2025.034.mom6.h.Agulhas_Section%4yr-%2mo", "all", ".true.", "20.1 20.1 -69.8 -34.6 -1 -1", 2

# "g.e30_b05.GJRAv4.TL319_t232_wgx3_hycom1_N75.2025.034.mom6.h.Barents_Opening%4yr-%2mo"
"ocean_model_z", "volcello","volcello","g.e30_b05.GJRAv4.TL319_t232_wgx3_hycom1_N75.2025.034.mom6.h.Barents_Opening%4yr-%2mo", "all", ".true.", "-5.75 19.0  78.93 78.93 -1 -1", 2
"ocean_model_z", "thetao",  "thetao",  "g.e30_b05.GJRAv4.TL319_t232_wgx3_hycom1_N75.2025.034.mom6.h.Barents_Opening%4yr-%2mo", "all", ".true.", "-5.75 19.0  78.93 78.93 -1 -1", 2
"ocean_model_z", "so",      "so",      "g.e30_b05.GJRAv4.TL319_t232_wgx3_hycom1_N75.2025.034.mom6.h.Barents_Opening%4yr-%2mo", "all", ".true.", "-5.75 19.0  78.93 78.93 -1 -1", 2
"ocean_model_z", "vmo",     "vmo",     "g.e30_b05.GJRAv4.TL319_t232_wgx3_hycom1_N75.2025.034.mom6.h.Barents_Opening%4yr-%2mo", "all", ".true.", "-5.75 19.0  78.93 78.93 -1 -1", 2
"ocean_model_z", "vo",      "vo",      "g.e30_b05.GJRAv4.TL319_t232_wgx3_hycom1_N75.2025.034.mom6.h.Barents_Opening%4yr-%2mo", "all", ".true.", "-5.75 19.0  78.93 78.93 -1 -1", 2

# "g.e30_b05.GJRAv4.TL319_t232_wgx3_hycom1_N75.2025.034.mom6.h.Bering_Strait%4yr-%2mo"
"ocean_model_z", "volcello","volcello","g.e30_b05.GJRAv4.TL319_t232_wgx3_hycom1_N75.2025.034.mom6.h.Bering_Strait%4yr-%2mo", "all", ".true.", "-174.5 -172.3 66.6 66.6 -1 -1", 2
"ocean_model_z", "thetao",  "thetao",  "g.e30_b05.GJRAv4.TL319_t232_wgx3_hycom1_N75.2025.034.mom6.h.Bering_Strait%4yr-%2mo", "all", ".true.", "-174.5 -172.3 66.6 66.6 -1 -1", 2
"ocean_model_z", "so",      "so",      "g.e30_b05.GJRAv4.TL319_t232_wgx3_hycom1_N75.2025.034.mom6.h.Bering_Strait%4yr-%2mo", "all", ".true.", "-174.5 -172.3 66.6 66.6 -1 -1", 2
"ocean_model_z", "vmo",     "vmo",     "g.e30_b05.GJRAv4.TL319_t232_wgx3_hycom1_N75.2025.034.mom6.h.Bering_Strait%4yr-%2mo", "all", ".true.", "-174.5 -172.3 66.6 66.6 -1 -1", 2
"ocean_model_z", "vo",      "vo",      "g.e30_b05.GJRAv4.TL319_t232_wgx3_hycom1_N75.2025.034.mom6.h.Bering_Strait%4yr-%2mo", "all", ".true.", "-174.5 -172.3 66.6 66.6 -1 -1", 2

# "g.e30_b05.GJRAv4.TL319_t232_wgx3_hycom1_N75.2025.034.mom6.h.Bosphorus_Strait%4yr-%2mo"