/* WARNING: DO NOT EDIT this file! Any user changes made in files
        in RUNDIR will be overriden. This file is automatically generated.
        MOM6 parameter changes may ve made via SourceMods or user_nl_mom
        within CASEROOT.*/
#override INPUTDIR = "INPUT"
#override MAXTRUNC = 2000
#override LEITH_AH = False
USE_LEITHY = True
#override LEITH_BI_CONST = 75.0
LEITHY_CK = 0.0
REMAPPING_USE_OM4_SUBCELLS = False
BODNER_DETECT_MLD = True
MLE_USE_PBL_MLD = False
MLE_DENSITY_DIFF = 0.02
#override ALE_COORDINATE_CONFIG = "HYBRID:hybrid_75layer_zstar2.50m-2025-01-19.nc,sigma2,dz"
#override MAX_LAYER_THICKNESS_CONFIG = "FILE:dz_max.nc,dz"
#override MAXIMUM_INT_DEPTH_CONFIG = "FILE:lev.nc,Z"

MLE%
USE_BODNER23 = True
USE_CR_GRID = True
CR_FILE = "mle-cr-tx2_3v2_20250123.nc"
MIN_WSTAR2 = 1.0E-09
BLD_DECAYING_TFILTER = 8.64E+04
MLD_DECAYING_TFILTER = 2.592E+06
BLD_GROWING_TFILTER = 300.
MLD_GROWING_TFILTER = 3600.
%MLE


KPP%
COMPUTE_MONIN_OBUKHOV = False
%KPP

